Version 4
SHEET 1 880 680
WIRE 112 -96 48 -96
WIRE 256 -96 192 -96
WIRE 48 -32 48 -96
WIRE 48 -32 -16 -32
WIRE 96 -32 48 -32
WIRE 256 -16 256 -96
WIRE 256 -16 160 -16
WIRE 304 -16 256 -16
WIRE 448 -16 384 -16
WIRE 512 -16 448 -16
WIRE 688 -16 592 -16
WIRE 448 48 448 -16
WIRE 576 48 448 48
WIRE 688 64 688 -16
WIRE 688 64 640 64
WIRE 720 64 688 64
WIRE 448 80 448 48
WIRE 576 80 560 80
WIRE 560 112 560 80
WIRE 448 192 448 160
FLAG 560 112 0
FLAG 688 64 Vo
FLAG -416 -144 0
FLAG -304 -144 0
FLAG -416 -224 Vdd
FLAG -304 -224 Vss
FLAG 128 -48 Vdd
FLAG 608 32 Vdd
FLAG 128 16 Vss
FLAG 608 96 Vss
FLAG -416 0 0
FLAG -304 0 0
FLAG -416 -80 Va
FLAG -304 -80 Vb
FLAG -96 -32 Va
FLAG 448 192 Vb
FLAG 256 -16 Vo1
FLAG -416 144 0
FLAG -288 144 0
FLAG -416 64 Vaa
FLAG -288 64 Vbb
FLAG 560 -304 0
FLAG 656 -304 0
FLAG 560 -384 Va2
FLAG 656 -384 Vb2
SYMBOL OpAmps\\OP482 128 -80 R0
SYMATTR InstName U1
SYMBOL OpAmps\\OP482 608 0 R0
SYMATTR InstName U2
SYMBOL res 208 -112 R90
WINDOW 0 0 56 VBottom 2
WINDOW 3 32 56 VTop 2
SYMATTR InstName R1
SYMATTR Value 1k
SYMBOL res 400 -32 R90
WINDOW 0 0 56 VBottom 2
WINDOW 3 32 56 VTop 2
SYMATTR InstName R2
SYMATTR Value 1k
SYMBOL res 608 -32 R90
WINDOW 0 0 56 VBottom 2
WINDOW 3 32 56 VTop 2
SYMATTR InstName R3
SYMATTR Value 22k
SYMBOL res 432 64 R0
SYMATTR InstName R4
SYMATTR Value 1k
SYMBOL res 0 -48 R90
WINDOW 0 0 56 VBottom 2
WINDOW 3 32 56 VTop 2
SYMATTR InstName R5
SYMATTR Value 1k
SYMBOL voltage -416 -240 R0
WINDOW 123 0 0 Left 0
WINDOW 39 0 0 Left 0
SYMATTR InstName V1
SYMATTR Value 15
SYMBOL voltage -304 -240 R0
WINDOW 123 0 0 Left 0
WINDOW 39 0 0 Left 0
SYMATTR InstName V2
SYMATTR Value -15
SYMBOL voltage -416 -96 R0
WINDOW 123 24 44 Left 2
WINDOW 39 0 0 Left 0
SYMATTR Value2 AC 0.5
SYMATTR InstName V3
SYMATTR Value 25.4m
SYMBOL voltage -304 -96 R0
WINDOW 123 24 44 Left 2
WINDOW 39 0 0 Left 0
SYMATTR Value2 AC -0.5
SYMATTR InstName V4
SYMATTR Value -25.4m
SYMBOL voltage -416 48 R0
WINDOW 3 -85 141 Left 2
WINDOW 123 -87 163 Left 2
WINDOW 39 0 0 Left 0
SYMATTR Value SINE(0 25.4m 10k)
SYMATTR Value2 AC 0.5
SYMATTR InstName V5
SYMBOL voltage -288 48 R0
WINDOW 3 58 77 Left 2
WINDOW 123 59 52 Left 2
WINDOW 39 0 0 Left 0
SYMATTR Value SINE(0 -25.4m 10k)
SYMATTR Value2 AC -0.5
SYMATTR InstName V6
SYMBOL voltage 560 -400 R0
WINDOW 123 0 0 Left 0
WINDOW 39 0 0 Left 0
SYMATTR InstName V7
SYMATTR Value 9m
SYMBOL voltage 656 -400 R0
WINDOW 123 0 0 Left 0
WINDOW 39 0 0 Left 0
SYMATTR InstName V8
SYMATTR Value -9m
TEXT 24 -272 Left 2 !.op
TEXT 24 -248 Left 2 ;.ac dec 100 .01 5Meg
TEXT 24 -224 Left 2 ;.tran 0 2m 1n
TEXT 24 -208 Left 2 ;.four 10k V(Vo)
